Version 4
SHEET 1 1124 680
WIRE 288 -32 112 -32
WIRE 448 -32 288 -32
WIRE 112 80 112 -32
WIRE 288 112 288 -32
WIRE 112 160 -48 160
WIRE 192 160 112 160
WIRE 224 160 192 160
WIRE -48 176 -48 160
WIRE 112 176 112 160
WIRE -128 256 -256 256
WIRE -48 256 -48 240
WIRE -48 256 -128 256
WIRE 176 256 112 256
WIRE 288 256 288 208
WIRE 288 256 256 256
WIRE 576 256 288 256
WIRE 112 272 112 256
WIRE -48 288 -48 256
WIRE 288 304 288 256
WIRE 112 352 -48 352
WIRE 192 352 112 352
WIRE 224 352 192 352
WIRE 112 368 112 352
WIRE 496 368 448 368
WIRE 288 448 288 400
WIRE 288 448 112 448
WIRE 448 448 448 368
WIRE 448 448 288 448
FLAG 448 48 0
FLAG 496 448 0
FLAG -256 336 0
FLAG 192 352 V_low
FLAG 192 160 V_high
FLAG -128 256 Vin
FLAG 576 336 0
SYMBOL res 96 64 R0
SYMATTR InstName R1
SYMATTR Value 275k
SYMBOL res 96 160 R0
SYMATTR InstName R2
SYMATTR Value 100k
SYMBOL res 96 256 R0
SYMATTR InstName R3
SYMATTR Value 100k
SYMBOL res 96 352 R0
SYMATTR InstName R4
SYMATTR Value 333k
SYMBOL cap -64 176 R0
SYMATTR InstName C1
SYMATTR Value 10µ
SYMBOL cap -64 288 R0
SYMATTR InstName C2
SYMATTR Value 10µ
SYMBOL voltage 448 -48 R0
SYMATTR InstName V1
SYMATTR Value 5
SYMBOL voltage 496 352 R0
SYMATTR InstName V2
SYMATTR Value -5
SYMBOL res 160 272 R270
WINDOW 0 32 56 VTop 2
WINDOW 3 0 56 VBottom 2
SYMATTR InstName R5
SYMATTR Value 5k
SYMBOL voltage -256 240 R0
WINDOW 123 0 0 Left 2
WINDOW 39 0 0 Left 2
SYMATTR InstName V3
SYMATTR Value SINE(0 1 1k)
SYMBOL circuit_sim\\IRF9510 224 112 R0
SYMATTR InstName U1
SYMBOL circuit_sim\\IRF510 224 304 R0
SYMATTR InstName U2
SYMBOL res 560 240 R0
SYMATTR InstName R6
SYMATTR Value 8
TEXT -272 472 Left 2 !.lib /home/gallop/.wine/dosdevices/c:/Program Files (x86)/LTC/LTspiceIV/lib/sym/circuit_sim/ECE331_354.lib
TEXT 672 96 Left 2 !.tran 0 0.01 0 0.000001
