Version 4
SHEET 1 1252 680
WIRE 240 0 16 0
WIRE 16 16 16 0
WIRE 240 16 240 0
WIRE 176 64 80 64
WIRE 80 128 80 64
WIRE 80 128 16 128
WIRE 240 128 240 112
WIRE 240 128 160 128
WIRE 480 128 240 128
WIRE 16 144 16 128
WIRE 240 144 240 128
WIRE 16 160 16 144
WIRE 80 192 80 128
WIRE 176 192 80 192
WIRE 288 240 240 240
FLAG 16 96 0
FLAG 16 240 0
FLAG 288 320 0
FLAG 480 128 Vout
FLAG 16 144 Vin
SYMBOL circuit_sim\\IRF9510 176 16 R0
SYMATTR InstName U1
SYMBOL circuit_sim\\IRF510 176 144 R0
SYMATTR InstName U2
SYMBOL res 64 144 R270
WINDOW 0 32 56 VTop 2
WINDOW 3 0 56 VBottom 2
SYMATTR InstName R1
SYMATTR Value 5k
SYMBOL voltage 16 144 M0
WINDOW 123 0 0 Left 2
WINDOW 39 0 0 Left 2
SYMATTR InstName V2_vi
SYMATTR Value SINE(0 10m 1k)
SYMBOL voltage 16 0 R0
SYMATTR InstName V3
SYMATTR Value 5
SYMBOL voltage 288 224 R0
SYMATTR InstName V4
SYMATTR Value -5
TEXT -144 288 Left 2 !.tran 0 0.05 0 0.0000001
TEXT -144 328 Left 2 !.lib /home/gallop/.wine/dosdevices/c:/Program Files (x86)/LTC/LTspiceIV/lib/sym/circuit_sim/ECE331_354.lib
